@<TRIPOS>MOLECULE
MOL
   18    19     1     0     0
SMALL
resp


@<TRIPOS>ATOM
      1  C1         -0.3450   -1.5410    0.0000 ca        1 MOL     -0.319863
      2  C2          1.0490   -1.6910    0.0000 ca        1 MOL      0.657774
      3  C3          1.8820   -0.5630    0.0000 ca        1 MOL     -0.109966
      4  C4          1.3830    0.7400    0.0000 ca        1 MOL     -0.066476
      5  C5          0.0000    0.8910    0.0000 ca        1 MOL      0.071747
      6  C6         -0.8650   -0.2500    0.0000 ca        1 MOL      0.197339
      7  N1          1.8400   -2.8190    0.0000 nc        1 MOL     -0.318151
      8  N2          3.0730   -2.4540    0.0000 nd        1 MOL     -0.194848
      9  N3          3.1330   -1.0980    0.0000 na        1 MOL      0.018976
     10 Br1          2.6300    2.1750    0.0000 br        1 MOL     -0.089448
     11 Br2         -0.7320    2.6450    0.0000 br        1 MOL     -0.126959
     12 Br3         -2.7520   -0.0040    0.0000 br        1 MOL     -0.119298
     13 Br4         -1.4030   -3.1100    0.0000 br        1 MOL     -0.091862
     14  H1          4.0270   -0.6300    0.0000 hn        1 MOL      0.283814
     15  EP          3.9560    3.6991    0.0000 ep        1 MOL      0.047179
     16  EP         -1.5092    4.5094    0.0000 ep        1 MOL      0.055550
     17  EP         -4.7552    0.2579    0.0000 ep        1 MOL      0.048308
     18  EP         -2.5329   -4.7845    0.0000 ep        1 MOL      0.056185
@<TRIPOS>BOND
     1     1     2 ar  
     2     1     6 ar  
     3     1    13 1   
     4     2     3 ar  
     5     2     7 1   
     6     3     4 ar  
     7     3     9 1   
     8     4     5 ar  
     9     4    10 1   
    10     5     6 ar  
    11     5    11 1   
    12     6    12 1   
    13     7     8 2   
    14     8     9 1   
    15     9    14 1   
    16    10    15 1
    17    11    16 1
    18    12    17 1
    19    13    18 1
@<TRIPOS>SUBSTRUCTURE
     1 MOL         1 TEMP              0 ****  ****    0 ROOT
